Version 4.1
SHEET 1 880 680
WIRE 64 48 -48 48
WIRE 64 176 64 128
WIRE 64 272 64 256
WIRE 192 272 64 272
WIRE 208 272 192 272
WIRE 64 304 64 272
WIRE -48 416 -48 48
WIRE 64 416 64 384
WIRE 64 416 -48 416
WIRE 64 448 64 416
FLAG 64 448 0
FLAG 192 272 Vout
SYMBOL voltage 64 144 R180
WINDOW 123 0 0 Left 0
WINDOW 39 0 0 Left 0
SYMATTR InstName V1
SYMATTR Value 3.3
SYMBOL res 48 160 R0
SYMATTR InstName R1
SYMATTR Value 10k
SYMBOL res 48 288 R0
SYMATTR InstName R2
SYMATTR Value {R25*exp(B*(1/(TEMP+273.15)-1/298.15))}
TEXT -304 -32 Left 2 !.step TEMP -40 105 5\n.op
TEXT -304 -64 Left 2 !.param R25=10000  B=3435
